* BSD 3-Clause License
* 
* Copyright 2020 Lawrence T. Clark, Vinay Vashishtha, or Arizona State
* University
* 
* Redistribution and use in source and binary forms, with or without
* modification, are permitted provided that the following conditions are met:
* 
* 1. Redistributions of source code must retain the above copyright notice,
* this list of conditions and the following disclaimer.
* 
* 2. Redistributions in binary form must reproduce the above copyright
* notice, this list of conditions and the following disclaimer in the
* documentation and/or other materials provided with the distribution.
* 
* 3. Neither the name of the copyright holder nor the names of its
* contributors may be used to endorse or promote products derived from this
* software without specific prior written permission.
* 
* THIS SOFTWARE IS PROVIDED BY THE COPYRIGHT HOLDERS AND CONTRIBUTORS "AS IS"
* AND ANY EXPRESS OR IMPLIED WARRANTIES, INCLUDING, BUT NOT LIMITED TO, THE
* IMPLIED WARRANTIES OF MERCHANTABILITY AND FITNESS FOR A PARTICULAR PURPOSE
* ARE DISCLAIMED. IN NO EVENT SHALL THE COPYRIGHT HOLDER OR CONTRIBUTORS BE
* LIABLE FOR ANY DIRECT, INDIRECT, INCIDENTAL, SPECIAL, EXEMPLARY, OR
* CONSEQUENTIAL DAMAGES (INCLUDING, BUT NOT LIMITED TO, PROCUREMENT OF
* SUBSTITUTE GOODS OR SERVICES; LOSS OF USE, DATA, OR PROFITS; OR BUSINESS
* INTERRUPTION) HOWEVER CAUSED AND ON ANY THEORY OF LIABILITY, WHETHER IN
* CONTRACT, STRICT LIABILITY, OR TORT (INCLUDING NEGLIGENCE OR OTHERWISE)
* ARISING IN ANY WAY OUT OF THE USE OF THIS SOFTWARE, EVEN IF ADVISED OF THE
* POSSIBILITY OF SUCH DAMAGE.

.SUBCKT A2O1A1Ixp33_ASAP7_75t_R A1 A2 B C VDD VSS Y
MM7 net06 B VSS VSS nmos_rvt w=81.0n l=20n nfin=3
MM2 Y C net06 VSS nmos_rvt w=81.0n l=20n nfin=3
MM1 net015 A2 VSS VSS nmos_rvt w=81.0n l=20n nfin=3
MM0 net06 A1 net015 VSS nmos_rvt w=81.0n l=20n nfin=3
MM6 Y C VDD VDD pmos_rvt w=54.0n l=20n nfin=2
MM5 Y B net2 VDD pmos_rvt w=81.0n l=20n nfin=3
MM4 net2 A2 VDD VDD pmos_rvt w=81.0n l=20n nfin=3
MM3 net2 A1 VDD VDD pmos_rvt w=81.0n l=20n nfin=3
.ENDS


.SUBCKT A2O1A1O1Ixp25_ASAP7_75t_R A1 A2 B C D VDD VSS Y
MM5 net4 A1 VDD VDD pmos_rvt w=81.0n l=20n nfin=3
MM8 net15 C VDD VDD pmos_rvt w=81.0n l=20n nfin=3
MM6 net4 A2 VDD VDD pmos_rvt w=81.0n l=20n nfin=3
MM9 Y D net15 VDD pmos_rvt w=81.0n l=20n nfin=3
MM7 net15 B net4 VDD pmos_rvt w=81.0n l=20n nfin=3
MM4 Y D VSS VSS nmos_rvt w=81.0n l=20n nfin=3
MM1 net25 A2 net12 VSS nmos_rvt w=81.0n l=20n nfin=3
MM3 Y B net12 VSS nmos_rvt w=81.0n l=20n nfin=3
MM0 Y A1 net25 VSS nmos_rvt w=81.0n l=20n nfin=3
MM2 net12 C VSS VSS nmos_rvt w=81.0n l=20n nfin=3
.ENDS


.SUBCKT AND2x2_ASAP7_75t_R A B VDD VSS Y
MM4 Y net10 VDD VDD pmos_rvt w=162.00n l=20n nfin=6
MM1 net10 B VDD VDD pmos_rvt w=54.0n l=20n nfin=2
MM0 net10 A VDD VDD pmos_rvt w=54.0n l=20n nfin=2
MM5 Y net10 VSS VSS nmos_rvt w=162.00n l=20n nfin=6
MM3 net20 A VSS VSS nmos_rvt w=81.0n l=20n nfin=3
MM2 net10 B net20 VSS nmos_rvt w=81.0n l=20n nfin=3
.ENDS


.SUBCKT AND2x4_ASAP7_75t_R A B VDD VSS Y
MM4 Y net9 VDD VDD pmos_rvt w=324.00n l=20n nfin=12
MM1 net9 B VDD VDD pmos_rvt w=108.00n l=20n nfin=4
MM0 net9 A VDD VDD pmos_rvt w=108.00n l=20n nfin=4
MM5 Y net9 VSS VSS nmos_rvt w=324.00n l=20n nfin=12
MM3 net19 A VSS VSS nmos_rvt w=162.00n l=20n nfin=6
MM2 net9 B net19 VSS nmos_rvt w=162.00n l=20n nfin=6
.ENDS


.SUBCKT AND2x6_ASAP7_75t_R A B VDD VSS Y
MM4 Y net9 VDD VDD pmos_rvt w=486.00n l=20n nfin=18
MM1 net9 B VDD VDD pmos_rvt w=108.00n l=20n nfin=4
MM0 net9 A VDD VDD pmos_rvt w=108.00n l=20n nfin=4
MM5 Y net9 VSS VSS nmos_rvt w=486.00n l=20n nfin=18
MM3 net19 A VSS VSS nmos_rvt w=162.00n l=20n nfin=6
MM2 net9 B net19 VSS nmos_rvt w=162.00n l=20n nfin=6
.ENDS


.SUBCKT AND3x1_ASAP7_75t_R A B C VDD VSS Y
MM6 Y net61 VDD VDD pmos_rvt w=81.0n l=20n nfin=3
MM5 net61 C VDD VDD pmos_rvt w=81.0n l=20n nfin=3
MM4 net61 B VDD VDD pmos_rvt w=81.0n l=20n nfin=3
MM3 net61 A VDD VDD pmos_rvt w=81.0n l=20n nfin=3
MM7 Y net61 VSS VSS nmos_rvt w=81.0n l=20n nfin=3
MM0 net61 A net72 VSS nmos_rvt w=81.0n l=20n nfin=3
MM1 net72 B net71 VSS nmos_rvt w=81.0n l=20n nfin=3
MM2 net71 C VSS VSS nmos_rvt w=81.0n l=20n nfin=3
.ENDS


.SUBCKT AND3x2_ASAP7_75t_R A B C VDD VSS Y
MM6 Y net61 VDD VDD pmos_rvt w=162.00n l=20n nfin=6
MM5 net61 C VDD VDD pmos_rvt w=81.0n l=20n nfin=3
MM4 net61 B VDD VDD pmos_rvt w=81.0n l=20n nfin=3
MM3 net61 A VDD VDD pmos_rvt w=81.0n l=20n nfin=3
MM7 Y net61 VSS VSS nmos_rvt w=162.00n l=20n nfin=6
MM0 net61 A net72 VSS nmos_rvt w=81.0n l=20n nfin=3
MM1 net72 B net71 VSS nmos_rvt w=81.0n l=20n nfin=3
MM2 net71 C VSS VSS nmos_rvt w=81.0n l=20n nfin=3
.ENDS


.SUBCKT AND3x4_ASAP7_75t_R A B C VDD VSS Y
MM6 Y net83 VDD VDD pmos_rvt w=324.00n l=20n nfin=12
MM5 net83 C VDD VDD pmos_rvt w=81.0n l=20n nfin=3
MM4 net83 B VDD VDD pmos_rvt w=81.0n l=20n nfin=3
MM3 net83 A VDD VDD pmos_rvt w=81.0n l=20n nfin=3
MM7 Y net83 VSS VSS nmos_rvt w=324.00n l=20n nfin=12
MM0 net83 A net89 VSS nmos_rvt w=162.00n l=20n nfin=6
MM1 net89 B net90 VSS nmos_rvt w=162.00n l=20n nfin=6
MM2 net90 C VSS VSS nmos_rvt w=162.00n l=20n nfin=6
.ENDS


.SUBCKT AND4x1_ASAP7_75t_R A B C D VDD VSS Y
MM8 Y net12 VDD VDD pmos_rvt w=81.0n l=20n nfin=3
MM7 net12 A VDD VDD pmos_rvt w=81.0n l=20n nfin=3
MM6 net12 B VDD VDD pmos_rvt w=81.0n l=20n nfin=3
MM2 net12 C VDD VDD pmos_rvt w=81.0n l=20n nfin=3
MM1 net12 D VDD VDD pmos_rvt w=81.0n l=20n nfin=3
MM9 Y net12 VSS VSS nmos_rvt w=81.0n l=20n nfin=3
MM5 pd3 A VSS VSS nmos_rvt w=81.0n l=20n nfin=3
MM3 pd2 B pd3 VSS nmos_rvt w=81.0n l=20n nfin=3
MM4 pd1 C pd2 VSS nmos_rvt w=81.0n l=20n nfin=3
MM0 net12 D pd1 VSS nmos_rvt w=81.0n l=20n nfin=3
.ENDS


.SUBCKT AND4x2_ASAP7_75t_R A B C D VDD VSS Y
MM5 net33 A VDD VDD pmos_rvt w=81.0n l=20n nfin=3
MM4 net33 B VDD VDD pmos_rvt w=81.0n l=20n nfin=3
MM3 net33 C VDD VDD pmos_rvt w=81.0n l=20n nfin=3
MM2 net33 D VDD VDD pmos_rvt w=81.0n l=20n nfin=3
MM1 Y net33 VDD VDD pmos_rvt w=162.00n l=20n nfin=6
MM9 net15 D VSS VSS nmos_rvt w=81.0n l=20n nfin=3
MM8 net16 C net15 VSS nmos_rvt w=81.0n l=20n nfin=3
MM7 net17 B net16 VSS nmos_rvt w=81.0n l=20n nfin=3
MM6 net33 A net17 VSS nmos_rvt w=81.0n l=20n nfin=3
MM0 Y net33 VSS VSS nmos_rvt w=162.00n l=20n nfin=6
.ENDS


.SUBCKT AND5x1_ASAP7_75t_R A B C D E VDD VSS Y
MM11 Y net011 VSS VSS nmos_rvt w=81.0n l=20n nfin=3
MM6 net29 E VSS VSS nmos_rvt w=81.0n l=20n nfin=3
MM5 net30 D net29 VSS nmos_rvt w=81.0n l=20n nfin=3
MM4 net024 B net023 VSS nmos_rvt w=81.0n l=20n nfin=3
MM0 net011 A net024 VSS nmos_rvt w=81.0n l=20n nfin=3
MM3 net023 C net30 VSS nmos_rvt w=81.0n l=20n nfin=3
MM9 net011 E VDD VDD pmos_rvt w=54.0n l=20n nfin=2
MM8 net011 D VDD VDD pmos_rvt w=54.0n l=20n nfin=2
MM7 net011 C VDD VDD pmos_rvt w=54.0n l=20n nfin=2
MM2 net011 B VDD VDD pmos_rvt w=54.0n l=20n nfin=2
MM1 Y net011 VDD VDD pmos_rvt w=81.0n l=20n nfin=3
MM10 net011 A VDD VDD pmos_rvt w=54.0n l=20n nfin=2
.ENDS


.SUBCKT AND5x2_ASAP7_75t_R A B C D E VDD VSS Y
MM1 Y net14 VDD VDD pmos_rvt w=162.00n l=20n nfin=6
MM9 net14 E VDD VDD pmos_rvt w=81.0n l=20n nfin=3
MM7 net14 B VDD VDD pmos_rvt w=81.0n l=20n nfin=3
MM2 net14 D VDD VDD pmos_rvt w=81.0n l=20n nfin=3
MM8 net14 C VDD VDD pmos_rvt w=81.0n l=20n nfin=3
MM10 net14 A VDD VDD pmos_rvt w=81.0n l=20n nfin=3
MM11 Y net14 VSS VSS nmos_rvt w=162.00n l=20n nfin=6
MM6 net33 E VSS VSS nmos_rvt w=162.00n l=20n nfin=6
MM5 net34 D net33 VSS nmos_rvt w=162.00n l=20n nfin=6
MM4 net32 B net35 VSS nmos_rvt w=162.00n l=20n nfin=6
MM0 net14 A net32 VSS nmos_rvt w=162.00n l=20n nfin=6
MM3 net35 C net34 VSS nmos_rvt w=162.00n l=20n nfin=6
.ENDS


.SUBCKT AO211x2_ASAP7_75t_R A1 A2 B C VDD VSS Y
MM8 Y net014 VSS VSS nmos_rvt w=162.00n l=20n nfin=6
MM4 net014 C VSS VSS nmos_rvt w=54.0n l=20n nfin=2
MM3 net014 B VSS VSS nmos_rvt w=54.0n l=20n nfin=2
MM2 net23 A2 VSS VSS nmos_rvt w=81.0n l=20n nfin=3
MM24 net014 A1 net23 VSS nmos_rvt w=81.0n l=20n nfin=3
MM7 Y net014 VDD VDD pmos_rvt w=162.00n l=20n nfin=6
MM6 net014 C net22 VDD pmos_rvt w=162.00n l=20n nfin=6
MM5 net22 B net20 VDD pmos_rvt w=162.00n l=20n nfin=6
MM1 net20 A2 VDD VDD pmos_rvt w=162.00n l=20n nfin=6
MM25 net20 A1 VDD VDD pmos_rvt w=162.00n l=20n nfin=6
.ENDS


.SUBCKT AO21x1_ASAP7_75t_R A1 A2 B VDD VSS Y
MM7 Y net16 VSS VSS nmos_rvt w=81.0n l=20n nfin=3
MM4 net16 B VSS VSS nmos_rvt w=81.0n l=20n nfin=3
MM3 net16 A1 net29 VSS nmos_rvt w=81.0n l=20n nfin=3
MM2 net29 A2 VSS VSS nmos_rvt w=81.0n l=20n nfin=3
MM8 Y net16 VDD VDD pmos_rvt w=81.0n l=20n nfin=3
MM5 net18 A2 net16 VDD pmos_rvt w=81.0n l=20n nfin=3
MM0 VDD B net18 VDD pmos_rvt w=81.0n l=20n nfin=3
MM1 net18 A1 net16 VDD pmos_rvt w=81.0n l=20n nfin=3
.ENDS


.SUBCKT AO21x2_ASAP7_75t_R A1 A2 B VDD VSS Y
MM7 Y net16 VSS VSS nmos_rvt w=162.00n l=20n nfin=6
MM4 net16 B VSS VSS nmos_rvt w=81.0n l=20n nfin=3
MM3 net16 A1 net29 VSS nmos_rvt w=81.0n l=20n nfin=3
MM2 net29 A2 VSS VSS nmos_rvt w=81.0n l=20n nfin=3
MM8 Y net16 VDD VDD pmos_rvt w=162.00n l=20n nfin=6
MM5 net18 A2 net16 VDD pmos_rvt w=81.0n l=20n nfin=3
MM0 VDD B net18 VDD pmos_rvt w=81.0n l=20n nfin=3
MM1 net18 A1 net16 VDD pmos_rvt w=81.0n l=20n nfin=3
.ENDS


.SUBCKT AO221x1_ASAP7_75t_R A1 A2 B1 B2 C VDD VSS Y
MM4 Y yn VSS VSS nmos_rvt w=81.0n l=20n nfin=3
MM28 yn C VSS VSS nmos_rvt w=54.0n l=20n nfin=2
MM27 net23 B2 VSS VSS nmos_rvt w=54.0n l=20n nfin=2
MM26 yn B1 net23 VSS nmos_rvt w=54.0n l=20n nfin=2
MM2 yn A1 net24 VSS nmos_rvt w=54.0n l=20n nfin=2
MM0 net24 A2 VSS VSS nmos_rvt w=54.0n l=20n nfin=2
MM3 Y yn VDD VDD pmos_rvt w=81.0n l=20n nfin=3
MM1 s1 C s2 VDD pmos_rvt w=81.0n l=20n nfin=3
MM32 s2 B2 yn VDD pmos_rvt w=81.0n l=20n nfin=3
MM31 s1 A2 VDD VDD pmos_rvt w=81.0n l=20n nfin=3
MM30 s2 B1 yn VDD pmos_rvt w=81.0n l=20n nfin=3
MM29 s1 A1 VDD VDD pmos_rvt w=81.0n l=20n nfin=3
.ENDS


.SUBCKT AO221x2_ASAP7_75t_R A1 A2 B1 B2 C VDD VSS Y
MM4 Y yn VSS VSS nmos_rvt w=162.00n l=20n nfin=6
MM28 yn C VSS VSS nmos_rvt w=54.0n l=20n nfin=2
MM27 net23 B2 VSS VSS nmos_rvt w=54.0n l=20n nfin=2
MM26 yn B1 net23 VSS nmos_rvt w=54.0n l=20n nfin=2
MM2 yn A1 net24 VSS nmos_rvt w=54.0n l=20n nfin=2
MM0 net24 A2 VSS VSS nmos_rvt w=54.0n l=20n nfin=2
MM3 Y yn VDD VDD pmos_rvt w=162.00n l=20n nfin=6
MM1 s1 C s2 VDD pmos_rvt w=81.0n l=20n nfin=3
MM32 s2 B2 yn VDD pmos_rvt w=81.0n l=20n nfin=3
MM31 s1 A2 VDD VDD pmos_rvt w=81.0n l=20n nfin=3
MM30 s2 B1 yn VDD pmos_rvt w=81.0n l=20n nfin=3
MM29 s1 A1 VDD VDD pmos_rvt w=81.0n l=20n nfin=3
.ENDS


.SUBCKT AO222x2_ASAP7_75t_R A1 A2 B1 B2 C1 C2 VDD VSS Y
MM8 Y net23 VDD VDD pmos_rvt w=162.00n l=20n nfin=6
MM5 net23 C2 net17 VDD pmos_rvt w=81.0n l=20n nfin=3
MM4 net17 B2 net18 VDD pmos_rvt w=81.0n l=20n nfin=3
MM3 net18 A2 VDD VDD pmos_rvt w=81.0n l=20n nfin=3
MM2 net23 C1 net17 VDD pmos_rvt w=81.0n l=20n nfin=3
MM1 net17 B1 net18 VDD pmos_rvt w=81.0n l=20n nfin=3
MM0 net18 A1 VDD VDD pmos_rvt w=81.0n l=20n nfin=3
MM14 net37 B2 VSS VSS nmos_rvt w=81.0n l=20n nfin=3
MM13 net23 B1 net37 VSS nmos_rvt w=81.0n l=20n nfin=3
MM11 net36 C2 VSS VSS nmos_rvt w=81.0n l=20n nfin=3
MM10 net23 C1 net36 VSS nmos_rvt w=81.0n l=20n nfin=3
MM9 Y net23 VSS VSS nmos_rvt w=162.00n l=20n nfin=6
MM7 net38 A2 VSS VSS nmos_rvt w=81.0n l=20n nfin=3
MM6 net23 A1 net38 VSS nmos_rvt w=81.0n l=20n nfin=3
.ENDS


.SUBCKT AO22x1_ASAP7_75t_R A1 A2 B1 B2 VDD VSS Y
MM5 net18 B2 net13 VDD pmos_rvt w=54.0n l=20n nfin=2
MM4 net18 B1 net13 VDD pmos_rvt w=54.0n l=20n nfin=2
MM3 net13 A2 VDD VDD pmos_rvt w=54.0n l=20n nfin=2
MM1 Y net18 VDD VDD pmos_rvt w=81.0n l=20n nfin=3
MM2 net13 A1 VDD VDD pmos_rvt w=54.0n l=20n nfin=2
MM9 net29 B1 VSS VSS nmos_rvt w=54.0n l=20n nfin=2
MM8 net30 A1 VSS VSS nmos_rvt w=54.0n l=20n nfin=2
MM7 net18 B2 net29 VSS nmos_rvt w=54.0n l=20n nfin=2
MM6 net18 A2 net30 VSS nmos_rvt w=54.0n l=20n nfin=2
MM0 Y net18 VSS VSS nmos_rvt w=81.0n l=20n nfin=3
.ENDS


.SUBCKT AO22x2_ASAP7_75t_R A1 A2 B1 B2 VDD VSS Y
MM5 net18 B2 net13 VDD pmos_rvt w=81.0n l=20n nfin=3
MM4 net18 B1 net13 VDD pmos_rvt w=81.0n l=20n nfin=3
MM3 net13 A2 VDD VDD pmos_rvt w=81.0n l=20n nfin=3
MM1 Y net18 VDD VDD pmos_rvt w=162.00n l=20n nfin=6
MM2 net13 A1 VDD VDD pmos_rvt w=81.0n l=20n nfin=3
MM9 net29 B1 VSS VSS nmos_rvt w=81.0n l=20n nfin=3
MM8 net30 A1 VSS VSS nmos_rvt w=81.0n l=20n nfin=3
MM7 net18 B2 net29 VSS nmos_rvt w=81.0n l=20n nfin=3
MM6 net18 A2 net30 VSS nmos_rvt w=81.0n l=20n nfin=3
MM0 Y net18 VSS VSS nmos_rvt w=162.00n l=20n nfin=6
.ENDS


.SUBCKT AO31x2_ASAP7_75t_R A1 A2 A3 B VDD VSS Y
MM0 Y net18 VSS VSS nmos_rvt w=162.00n l=20n nfin=6
MM5 net18 B VSS VSS nmos_rvt w=54.0n l=20n nfin=2
MM4 net29 A3 VSS VSS nmos_rvt w=162.00n l=20n nfin=6
MM2 net18 A1 net30 VSS nmos_rvt w=162.00n l=20n nfin=6
MM3 net30 A2 net29 VSS nmos_rvt w=162.00n l=20n nfin=6
MM1 Y net18 VDD VDD pmos_rvt w=162.00n l=20n nfin=6
MM9 net18 B net23 VDD pmos_rvt w=162.00n l=20n nfin=6
MM10 net23 A3 VDD VDD pmos_rvt w=162.00n l=20n nfin=6
MM7 net23 A2 VDD VDD pmos_rvt w=162.00n l=20n nfin=6
MM6 net23 A1 VDD VDD pmos_rvt w=162.00n l=20n nfin=6
.ENDS


.SUBCKT AO322x2_ASAP7_75t_R A1 A2 A3 B1 B2 C1 C2 VDD VSS Y
MM16 Y net25 VSS VSS nmos_rvt w=162.00n l=20n nfin=6
MM6 net50 C2 VSS VSS nmos_rvt w=54.0n l=20n nfin=2
MM5 net25 C1 net50 VSS nmos_rvt w=54.0n l=20n nfin=2
MM4 net51 B2 VSS VSS nmos_rvt w=54.0n l=20n nfin=2
MM3 net25 B1 net51 VSS nmos_rvt w=54.0n l=20n nfin=2
MM2 net52 A3 VSS VSS nmos_rvt w=81.0n l=20n nfin=3
MM1 net49 A2 net52 VSS nmos_rvt w=81.0n l=20n nfin=3
MM0 net25 A1 net49 VSS nmos_rvt w=81.0n l=20n nfin=3
MM17 Y net25 VDD VDD pmos_rvt w=162.00n l=20n nfin=6
MM13 net27 A3 VDD VDD pmos_rvt w=81.0n l=20n nfin=3
MM12 net25 C2 net53 VDD pmos_rvt w=81.0n l=20n nfin=3
MM11 net53 B2 net27 VDD pmos_rvt w=81.0n l=20n nfin=3
MM10 net27 A2 VDD VDD pmos_rvt w=81.0n l=20n nfin=3
MM9 net25 C1 net53 VDD pmos_rvt w=81.0n l=20n nfin=3
MM8 net53 B1 net27 VDD pmos_rvt w=81.0n l=20n nfin=3
MM7 net27 A1 VDD VDD pmos_rvt w=81.0n l=20n nfin=3
.ENDS


.SUBCKT AO32x1_ASAP7_75t_R A1 A2 A3 B1 B2 VDD VSS Y
MM21 Y net08 VSS VSS nmos_rvt w=81.0n l=20n nfin=3
MM0 net08 A1 net24 VSS nmos_rvt w=81.0n l=20n nfin=3
MM2 net24 A2 net25 VSS nmos_rvt w=81.0n l=20n nfin=3
MM3 net25 A3 VSS VSS nmos_rvt w=81.0n l=20n nfin=3
MM18 net26 B2 VSS VSS nmos_rvt w=54.0n l=20n nfin=2
MM13 net08 B1 net26 VSS nmos_rvt w=54.0n l=20n nfin=2
MM20 Y net08 VDD VDD pmos_rvt w=81.0n l=20n nfin=3
MM1 net10 A2 VDD VDD pmos_rvt w=54.0n l=20n nfin=2
MM4 net10 A3 VDD VDD pmos_rvt w=54.0n l=20n nfin=2
MM5 net10 A1 VDD VDD pmos_rvt w=54.0n l=20n nfin=2
MM15 net08 B2 net10 VDD pmos_rvt w=54.0n l=20n nfin=2
MM14 net08 B1 net10 VDD pmos_rvt w=54.0n l=20n nfin=2
.ENDS


.SUBCKT AO32x2_ASAP7_75t_R A1 A2 A3 B1 B2 VDD VSS Y
MM21 Y net08 VSS VSS nmos_rvt w=162.00n l=20n nfin=6
MM0 net08 A1 net24 VSS nmos_rvt w=81.0n l=20n nfin=3
MM2 net24 A2 net25 VSS nmos_rvt w=81.0n l=20n nfin=3
MM3 net25 A3 VSS VSS nmos_rvt w=81.0n l=20n nfin=3
MM18 net26 B2 VSS VSS nmos_rvt w=54.0n l=20n nfin=2
MM13 net08 B1 net26 VSS nmos_rvt w=54.0n l=20n nfin=2
MM20 Y net08 VDD VDD pmos_rvt w=162.00n l=20n nfin=6
MM1 net10 A2 VDD VDD pmos_rvt w=54.0n l=20n nfin=2
MM4 net10 A3 VDD VDD pmos_rvt w=54.0n l=20n nfin=2
MM5 net10 A1 VDD VDD pmos_rvt w=54.0n l=20n nfin=2
MM15 net08 B2 net10 VDD pmos_rvt w=54.0n l=20n nfin=2
MM14 net08 B1 net10 VDD pmos_rvt w=54.0n l=20n nfin=2
.ENDS


.SUBCKT AO331x1_ASAP7_75t_R A1 A2 A3 B1 B2 B3 C VDD VSS Y
MM0 Y yb VDD VDD pmos_rvt w=81.0n l=20n nfin=3
MM23 net24 B3 net034 VDD pmos_rvt w=81.0n l=20n nfin=3
MM26 net034 A3 VDD VDD pmos_rvt w=81.0n l=20n nfin=3
MM21 net24 B2 net034 VDD pmos_rvt w=81.0n l=20n nfin=3
MM25 net034 A2 VDD VDD pmos_rvt w=81.0n l=20n nfin=3
MM27 yb C net24 VDD pmos_rvt w=81.0n l=20n nfin=3
MM20 net24 B1 net034 VDD pmos_rvt w=81.0n l=20n nfin=3
MM24 net034 A1 VDD VDD pmos_rvt w=81.0n l=20n nfin=3
MM1 Y yb VSS VSS nmos_rvt w=81.0n l=20n nfin=3
MM22 yb C VSS VSS nmos_rvt w=81.0n l=20n nfin=3
MM19 net31 B3 VSS VSS nmos_rvt w=81.0n l=20n nfin=3
MM18 net32 B2 net31 VSS nmos_rvt w=81.0n l=20n nfin=3
MM17 yb B1 net32 VSS nmos_rvt w=81.0n l=20n nfin=3
MM16 n2 A3 VSS VSS nmos_rvt w=81.0n l=20n nfin=3
MM15 n1 A2 n2 VSS nmos_rvt w=81.0n l=20n nfin=3
MM14 yb A1 n1 VSS nmos_rvt w=81.0n l=20n nfin=3
.ENDS


.SUBCKT AO331x2_ASAP7_75t_R A1 A2 A3 B1 B2 B3 C VDD VSS Y
MM0 Y yb VDD VDD pmos_rvt w=162.00n l=20n nfin=6
MM23 net24 B3 net034 VDD pmos_rvt w=81.0n l=20n nfin=3
MM26 net034 A3 VDD VDD pmos_rvt w=81.0n l=20n nfin=3
MM21 net24 B2 net034 VDD pmos_rvt w=81.0n l=20n nfin=3
MM25 net034 A2 VDD VDD pmos_rvt w=81.0n l=20n nfin=3
MM27 yb C net24 VDD pmos_rvt w=81.0n l=20n nfin=3
MM20 net24 B1 net034 VDD pmos_rvt w=81.0n l=20n nfin=3
MM24 net034 A1 VDD VDD pmos_rvt w=81.0n l=20n nfin=3
MM1 Y yb VSS VSS nmos_rvt w=162.00n l=20n nfin=6
MM22 yb C VSS VSS nmos_rvt w=81.0n l=20n nfin=3
MM19 net31 B3 VSS VSS nmos_rvt w=81.0n l=20n nfin=3
MM18 net32 B2 net31 VSS nmos_rvt w=81.0n l=20n nfin=3
MM17 yb B1 net32 VSS nmos_rvt w=81.0n l=20n nfin=3
MM16 n2 A3 VSS VSS nmos_rvt w=81.0n l=20n nfin=3
MM15 n1 A2 n2 VSS nmos_rvt w=81.0n l=20n nfin=3
MM14 yb A1 n1 VSS nmos_rvt w=81.0n l=20n nfin=3
.ENDS


.SUBCKT AO332x1_ASAP7_75t_R A1 A2 A3 B1 B2 B3 C1 C2 VDD VSS Y
MM17 net018 C1 net061 VSS nmos_rvt w=81.0n l=20n nfin=3
MM16 net061 C2 VSS VSS nmos_rvt w=81.0n l=20n nfin=3
MM13 Y net018 VSS VSS nmos_rvt w=81.0n l=20n nfin=3
MM12 net018 B1 net063 VSS nmos_rvt w=81.0n l=20n nfin=3
MM11 net063 B2 net064 VSS nmos_rvt w=81.0n l=20n nfin=3
MM10 net064 B3 VSS VSS nmos_rvt w=81.0n l=20n nfin=3
MM3 net25 A3 VSS VSS nmos_rvt w=81.0n l=20n nfin=3
MM14 net018 A1 net26 VSS nmos_rvt w=81.0n l=20n nfin=3
MM2 net26 A2 net25 VSS nmos_rvt w=81.0n l=20n nfin=3
MM15 Y net018 VDD VDD pmos_rvt w=81.0n l=20n nfin=3
MM9 net031 A1 VDD VDD pmos_rvt w=81.0n l=20n nfin=3
MM8 net031 A2 VDD VDD pmos_rvt w=81.0n l=20n nfin=3
MM7 net031 A3 VDD VDD pmos_rvt w=81.0n l=20n nfin=3
MM6 net030 B1 net031 VDD pmos_rvt w=81.0n l=20n nfin=3
MM1 net018 C1 net030 VDD pmos_rvt w=81.0n l=20n nfin=3
MM5 net030 B2 net031 VDD pmos_rvt w=81.0n l=20n nfin=3
MM4 net030 B3 net031 VDD pmos_rvt w=81.0n l=20n nfin=3
MM0 net018 C2 net030 VDD pmos_rvt w=81.0n l=20n nfin=3
.ENDS


.SUBCKT AO332x2_ASAP7_75t_R A1 A2 A3 B1 B2 B3 C1 C2 VDD VSS Y
MM17 net018 C1 net061 VSS nmos_rvt w=81.0n l=20n nfin=3
MM16 net061 C2 VSS VSS nmos_rvt w=81.0n l=20n nfin=3
MM13 Y net018 VSS VSS nmos_rvt w=162.00n l=20n nfin=6
MM12 net018 B1 net063 VSS nmos_rvt w=81.0n l=20n nfin=3
MM11 net063 B2 net064 VSS nmos_rvt w=81.0n l=20n nfin=3
MM10 net064 B3 VSS VSS nmos_rvt w=81.0n l=20n nfin=3
MM3 net25 A3 VSS VSS nmos_rvt w=81.0n l=20n nfin=3
MM14 net018 A1 net26 VSS nmos_rvt w=81.0n l=20n nfin=3
MM2 net26 A2 net25 VSS nmos_rvt w=81.0n l=20n nfin=3
MM15 Y net018 VDD VDD pmos_rvt w=162.00n l=20n nfin=6
MM9 net031 A1 VDD VDD pmos_rvt w=81.0n l=20n nfin=3
MM8 net031 A2 VDD VDD pmos_rvt w=81.0n l=20n nfin=3
MM7 net031 A3 VDD VDD pmos_rvt w=81.0n l=20n nfin=3
MM6 net030 B1 net031 VDD pmos_rvt w=81.0n l=20n nfin=3
MM1 net018 C1 net030 VDD pmos_rvt w=81.0n l=20n nfin=3
MM5 net030 B2 net031 VDD pmos_rvt w=81.0n l=20n nfin=3
MM4 net030 B3 net031 VDD pmos_rvt w=81.0n l=20n nfin=3
MM0 net018 C2 net030 VDD pmos_rvt w=81.0n l=20n nfin=3
.ENDS


.SUBCKT AO333x1_ASAP7_75t_R A1 A2 A3 B1 B2 B3 C1 C2 C3 VDD VSS Y
MM3 Y net40 VSS VSS nmos_rvt w=81.0n l=20n nfin=3
MM0 net40 C1 net55 VSS nmos_rvt w=81.0n l=20n nfin=3
MM1 net55 C2 net54 VSS nmos_rvt w=81.0n l=20n nfin=3
MM2 net54 C3 VSS VSS nmos_rvt w=81.0n l=20n nfin=3
MM19 net58 A3 VSS VSS nmos_rvt w=81.0n l=20n nfin=3
MM18 net59 A2 net58 VSS nmos_rvt w=81.0n l=20n nfin=3
MM14 net40 A1 net59 VSS nmos_rvt w=81.0n l=20n nfin=3
MM10 net40 B3 net56 VSS nmos_rvt w=81.0n l=20n nfin=3
MM9 net56 B2 net57 VSS nmos_rvt w=81.0n l=20n nfin=3
MM8 net57 B1 VSS VSS nmos_rvt w=81.0n l=20n nfin=3
MM7 net40 C1 net22 VDD pmos_rvt w=81.0n l=20n nfin=3
MM6 net40 C2 net22 VDD pmos_rvt w=81.0n l=20n nfin=3
MM5 net40 C3 net22 VDD pmos_rvt w=81.0n l=20n nfin=3
MM4 Y net40 VDD VDD pmos_rvt w=81.0n l=20n nfin=3
MM17 net24 A3 VDD VDD pmos_rvt w=81.0n l=20n nfin=3
MM16 net24 A2 VDD VDD pmos_rvt w=81.0n l=20n nfin=3
MM15 net24 A1 VDD VDD pmos_rvt w=81.0n l=20n nfin=3
MM13 net22 B3 net24 VDD pmos_rvt w=81.0n l=20n nfin=3
MM12 net22 B2 net24 VDD pmos_rvt w=81.0n l=20n nfin=3
MM11 net22 B1 net24 VDD pmos_rvt w=81.0n l=20n nfin=3
.ENDS


.SUBCKT AO333x2_ASAP7_75t_R A1 A2 A3 B1 B2 B3 C1 C2 C3 VDD VSS Y
MM3 Y net40 VSS VSS nmos_rvt w=162.00n l=20n nfin=6
MM0 net40 C1 net55 VSS nmos_rvt w=81.0n l=20n nfin=3
MM1 net55 C2 net54 VSS nmos_rvt w=81.0n l=20n nfin=3
MM2 net54 C3 VSS VSS nmos_rvt w=81.0n l=20n nfin=3
MM19 net58 A3 VSS VSS nmos_rvt w=81.0n l=20n nfin=3
MM18 net59 A2 net58 VSS nmos_rvt w=81.0n l=20n nfin=3
MM14 net40 A1 net59 VSS nmos_rvt w=81.0n l=20n nfin=3
MM10 net40 B3 net56 VSS nmos_rvt w=81.0n l=20n nfin=3
MM9 net56 B2 net57 VSS nmos_rvt w=81.0n l=20n nfin=3
MM8 net57 B1 VSS VSS nmos_rvt w=81.0n l=20n nfin=3
MM7 net40 C1 net22 VDD pmos_rvt w=81.0n l=20n nfin=3
MM6 net40 C2 net22 VDD pmos_rvt w=81.0n l=20n nfin=3
MM5 net40 C3 net22 VDD pmos_rvt w=81.0n l=20n nfin=3
MM4 Y net40 VDD VDD pmos_rvt w=162.00n l=20n nfin=6
MM17 net24 A3 VDD VDD pmos_rvt w=81.0n l=20n nfin=3
MM16 net24 A2 VDD VDD pmos_rvt w=81.0n l=20n nfin=3
MM15 net24 A1 VDD VDD pmos_rvt w=81.0n l=20n nfin=3
MM13 net22 B3 net24 VDD pmos_rvt w=81.0n l=20n nfin=3
MM12 net22 B2 net24 VDD pmos_rvt w=81.0n l=20n nfin=3
MM11 net22 B1 net24 VDD pmos_rvt w=81.0n l=20n nfin=3
.ENDS


.SUBCKT AO33x2_ASAP7_75t_R A1 A2 A3 B1 B2 B3 VDD VSS Y
MM25 Y net020 VDD VDD pmos_rvt w=162.00n l=20n nfin=6
MM6 net020 B3 net15 VDD pmos_rvt w=54.0n l=20n nfin=2
MM5 net15 A3 VDD VDD pmos_rvt w=54.0n l=20n nfin=2
MM4 net15 A2 VDD VDD pmos_rvt w=54.0n l=20n nfin=2
MM3 net020 B2 net15 VDD pmos_rvt w=54.0n l=20n nfin=2
MM2 net020 B1 net15 VDD pmos_rvt w=54.0n l=20n nfin=2
MM21 net15 A1 VDD VDD pmos_rvt w=54.0n l=20n nfin=2
MM24 Y net020 VSS VSS nmos_rvt w=162.00n l=20n nfin=6
MM10 net020 B1 net39 VSS nmos_rvt w=81.0n l=20n nfin=3
MM9 net022 B3 VSS VSS nmos_rvt w=81.0n l=20n nfin=3
MM8 net39 B2 net022 VSS nmos_rvt w=81.0n l=20n nfin=3
MM7 net020 A1 net40 VSS nmos_rvt w=81.0n l=20n nfin=3
MM1 net024 A3 VSS VSS nmos_rvt w=81.0n l=20n nfin=3
MM0 net40 A2 net024 VSS nmos_rvt w=81.0n l=20n nfin=3
.ENDS


.SUBCKT AOI211x1_ASAP7_75t_R A1 A2 B C VDD VSS Y
MM20 Y C VSS VSS nmos_rvt w=81.0n l=20n nfin=3
MM3 Y B VSS VSS nmos_rvt w=81.0n l=20n nfin=3
MM4 Y A2 net32 VSS nmos_rvt w=81.0n l=20n nfin=3
MM5 net32 A1 VSS VSS nmos_rvt w=81.0n l=20n nfin=3
MM21 net17 A2 VDD VDD pmos_rvt w=162.00n l=20n nfin=6
MM0 net17 A1 VDD VDD pmos_rvt w=162.00n l=20n nfin=6
MM6 net34 B net17 VDD pmos_rvt w=162.00n l=20n nfin=6
MM7 Y C net34 VDD pmos_rvt w=162.00n l=20n nfin=6
.ENDS


.SUBCKT AOI211xp5_ASAP7_75t_R A1 A2 B C VDD VSS Y
MM20 Y C VSS VSS nmos_rvt w=54.0n l=20n nfin=2
MM3 Y B VSS VSS nmos_rvt w=54.0n l=20n nfin=2
MM4 Y A2 net32 VSS nmos_rvt w=54.0n l=20n nfin=2
MM5 net32 A1 VSS VSS nmos_rvt w=54.0n l=20n nfin=2
MM21 net17 A2 VDD VDD pmos_rvt w=81.0n l=20n nfin=3
MM0 net17 A1 VDD VDD pmos_rvt w=81.0n l=20n nfin=3
MM6 net34 B net17 VDD pmos_rvt w=81.0n l=20n nfin=3
MM7 Y C net34 VDD pmos_rvt w=81.0n l=20n nfin=3
.ENDS


.SUBCKT AOI21x1_ASAP7_75t_R A1 A2 B VDD VSS Y
MM4 Y B VSS VSS nmos_rvt w=108.00n l=20n nfin=4
MM3 Y A1 net29 VSS nmos_rvt w=162.00n l=20n nfin=6
MM2 net29 A2 VSS VSS nmos_rvt w=162.00n l=20n nfin=6
MM5 net18 A2 VDD VDD pmos_rvt w=162.00n l=20n nfin=6
MM0 Y B net18 VDD pmos_rvt w=162.00n l=20n nfin=6
MM1 net18 A1 VDD VDD pmos_rvt w=162.00n l=20n nfin=6
.ENDS


.SUBCKT AOI21xp33_ASAP7_75t_R A1 A2 B VDD VSS Y
MM4 Y B VSS VSS nmos_rvt w=54.0n l=20n nfin=2
MM3 Y A1 net29 VSS nmos_rvt w=54.0n l=20n nfin=2
MM2 net29 A2 VSS VSS nmos_rvt w=54.0n l=20n nfin=2
MM5 net18 A2 VDD VDD pmos_rvt w=54.0n l=20n nfin=2
MM0 Y B net18 VDD pmos_rvt w=54.0n l=20n nfin=2
MM1 net18 A1 VDD VDD pmos_rvt w=54.0n l=20n nfin=2
.ENDS


.SUBCKT AOI21xp5_ASAP7_75t_R A1 A2 B VDD VSS Y
MM4 Y B VSS VSS nmos_rvt w=54.0n l=20n nfin=2
MM3 Y A1 net29 VSS nmos_rvt w=81.0n l=20n nfin=3
MM2 net29 A2 VSS VSS nmos_rvt w=81.0n l=20n nfin=3
MM5 net18 A2 VDD VDD pmos_rvt w=81.0n l=20n nfin=3
MM0 Y B net18 VDD pmos_rvt w=81.0n l=20n nfin=3
MM1 net18 A1 VDD VDD pmos_rvt w=81.0n l=20n nfin=3
.ENDS


.SUBCKT AOI221x1_ASAP7_75t_R A1 A2 B1 B2 C VDD VSS Y
MM28 Y C VSS VSS nmos_rvt w=54.0n l=20n nfin=2
MM27 net23 B2 VSS VSS nmos_rvt w=81.0n l=20n nfin=3
MM26 Y B1 net23 VSS nmos_rvt w=81.0n l=20n nfin=3
MM2 Y A1 net24 VSS nmos_rvt w=81.0n l=20n nfin=3
MM0 net24 A2 VSS VSS nmos_rvt w=81.0n l=20n nfin=3
MM1 Y C net16 VDD pmos_rvt w=162.00n l=20n nfin=6
MM32 net16 B2 net10 VDD pmos_rvt w=162.00n l=20n nfin=6
MM31 net10 A2 VDD VDD pmos_rvt w=162.00n l=20n nfin=6
MM30 net16 B1 net10 VDD pmos_rvt w=162.00n l=20n nfin=6
MM29 net10 A1 VDD VDD pmos_rvt w=162.00n l=20n nfin=6
.ENDS


.SUBCKT AOI221xp5_ASAP7_75t_R A1 A2 B1 B2 C VDD VSS Y
MM28 Y C VSS VSS nmos_rvt w=54.0n l=20n nfin=2
MM27 net23 B2 VSS VSS nmos_rvt w=54.0n l=20n nfin=2
MM26 Y B1 net23 VSS nmos_rvt w=54.0n l=20n nfin=2
MM2 Y A1 net24 VSS nmos_rvt w=54.0n l=20n nfin=2
MM0 net24 A2 VSS VSS nmos_rvt w=54.0n l=20n nfin=2
MM1 net012 C net16 VDD pmos_rvt w=81.0n l=20n nfin=3
MM32 net16 B2 Y VDD pmos_rvt w=81.0n l=20n nfin=3
MM31 net012 A2 VDD VDD pmos_rvt w=81.0n l=20n nfin=3
MM30 net16 B1 Y VDD pmos_rvt w=81.0n l=20n nfin=3
MM29 net012 A1 VDD VDD pmos_rvt w=81.0n l=20n nfin=3
.ENDS


.SUBCKT AOI222xp33_ASAP7_75t_R A1 A2 B1 B2 C1 C2 VDD VSS Y
MM6 net50 C2 VSS VSS nmos_rvt w=54.0n l=20n nfin=2
MM5 Y C1 net50 VSS nmos_rvt w=54.0n l=20n nfin=2
MM4 net51 B2 VSS VSS nmos_rvt w=54.0n l=20n nfin=2
MM3 Y B1 net51 VSS nmos_rvt w=54.0n l=20n nfin=2
MM1 net49 A2 VSS VSS nmos_rvt w=54.0n l=20n nfin=2
MM0 Y A1 net49 VSS nmos_rvt w=54.0n l=20n nfin=2
MM12 Y A2 net53 VDD pmos_rvt w=81.0n l=20n nfin=3
MM11 net53 B2 net27 VDD pmos_rvt w=81.0n l=20n nfin=3
MM10 net27 C2 VDD VDD pmos_rvt w=81.0n l=20n nfin=3
MM9 Y A1 net53 VDD pmos_rvt w=81.0n l=20n nfin=3
MM8 net53 B1 net27 VDD pmos_rvt w=81.0n l=20n nfin=3
MM7 net27 C1 VDD VDD pmos_rvt w=81.0n l=20n nfin=3
.ENDS


.SUBCKT AOI22x1_ASAP7_75t_R A1 A2 B1 B2 VDD VSS Y
MM5 Y A2 net13 VDD pmos_rvt w=162.00n l=20n nfin=6
MM4 Y A1 net13 VDD pmos_rvt w=162.00n l=20n nfin=6
MM3 net13 B2 VDD VDD pmos_rvt w=162.00n l=20n nfin=6
MM2 net13 B1 VDD VDD pmos_rvt w=162.00n l=20n nfin=6
MM9 net29 B1 VSS VSS nmos_rvt w=162.00n l=20n nfin=6
MM8 net30 A1 VSS VSS nmos_rvt w=162.00n l=20n nfin=6
MM7 Y B2 net29 VSS nmos_rvt w=162.00n l=20n nfin=6
MM6 Y A2 net30 VSS nmos_rvt w=162.00n l=20n nfin=6
.ENDS


.SUBCKT AOI22xp33_ASAP7_75t_R A1 A2 B1 B2 VDD VSS Y
MM5 Y B2 net13 VDD pmos_rvt w=54.0n l=20n nfin=2
MM4 Y B1 net13 VDD pmos_rvt w=54.0n l=20n nfin=2
MM3 net13 A2 VDD VDD pmos_rvt w=54.0n l=20n nfin=2
MM2 net13 A1 VDD VDD pmos_rvt w=54.0n l=20n nfin=2
MM9 net29 B1 VSS VSS nmos_rvt w=54.0n l=20n nfin=2
MM8 net30 A1 VSS VSS nmos_rvt w=54.0n l=20n nfin=2
MM7 Y B2 net29 VSS nmos_rvt w=54.0n l=20n nfin=2
MM6 Y A2 net30 VSS nmos_rvt w=54.0n l=20n nfin=2
.ENDS


.SUBCKT AOI22xp5_ASAP7_75t_R A1 A2 B1 B2 VDD VSS Y
MM5 Y B2 net13 VDD pmos_rvt w=81.0n l=20n nfin=3
MM4 Y B1 net13 VDD pmos_rvt w=81.0n l=20n nfin=3
MM3 net13 A2 VDD VDD pmos_rvt w=81.0n l=20n nfin=3
MM2 net13 A1 VDD VDD pmos_rvt w=81.0n l=20n nfin=3
MM9 net29 B1 VSS VSS nmos_rvt w=81.0n l=20n nfin=3
MM8 net30 A1 VSS VSS nmos_rvt w=81.0n l=20n nfin=3
MM7 Y B2 net29 VSS nmos_rvt w=81.0n l=20n nfin=3
MM6 Y A2 net30 VSS nmos_rvt w=81.0n l=20n nfin=3
.ENDS


.SUBCKT AOI311xp33_ASAP7_75t_R A1 A2 A3 B C VDD VSS Y
MM0 Y C VSS VSS nmos_rvt w=54.0n l=20n nfin=2
MM5 Y B VSS VSS nmos_rvt w=54.0n l=20n nfin=2
MM4 net29 A3 VSS VSS nmos_rvt w=81.0n l=20n nfin=3
MM2 Y A1 net30 VSS nmos_rvt w=81.0n l=20n nfin=3
MM3 net30 A2 net29 VSS nmos_rvt w=81.0n l=20n nfin=3
MM1 Y C net020 VDD pmos_rvt w=81.0n l=20n nfin=3
MM9 net020 B net23 VDD pmos_rvt w=81.0n l=20n nfin=3
MM10 net23 A3 VDD VDD pmos_rvt w=81.0n l=20n nfin=3
MM7 net23 A2 VDD VDD pmos_rvt w=81.0n l=20n nfin=3
MM6 net23 A1 VDD VDD pmos_rvt w=81.0n l=20n nfin=3
.ENDS


.SUBCKT AOI31xp33_ASAP7_75t_R A1 A2 A3 B VDD VSS Y
MM5 Y B VSS VSS nmos_rvt w=54.0n l=20n nfin=2
MM4 net29 A3 VSS VSS nmos_rvt w=81.0n l=20n nfin=3
MM2 Y A1 net30 VSS nmos_rvt w=81.0n l=20n nfin=3
MM3 net30 A2 net29 VSS nmos_rvt w=81.0n l=20n nfin=3
MM9 Y B net23 VDD pmos_rvt w=54.0n l=20n nfin=2
MM10 net23 A3 VDD VDD pmos_rvt w=54.0n l=20n nfin=2
MM7 net23 A2 VDD VDD pmos_rvt w=54.0n l=20n nfin=2
MM6 net23 A1 VDD VDD pmos_rvt w=54.0n l=20n nfin=2
.ENDS


.SUBCKT AOI31xp67_ASAP7_75t_R A1 A2 A3 B VDD VSS Y
MM5 Y B VSS VSS nmos_rvt w=54.0n l=20n nfin=2
MM4 net29 A3 VSS VSS nmos_rvt w=162.00n l=20n nfin=6
MM2 Y A1 net30 VSS nmos_rvt w=162.00n l=20n nfin=6
MM3 net30 A2 net29 VSS nmos_rvt w=162.00n l=20n nfin=6
MM9 Y B net23 VDD pmos_rvt w=162.00n l=20n nfin=6
MM10 net23 A3 VDD VDD pmos_rvt w=162.00n l=20n nfin=6
MM7 net23 A2 VDD VDD pmos_rvt w=162.00n l=20n nfin=6
MM6 net23 A1 VDD VDD pmos_rvt w=162.00n l=20n nfin=6
.ENDS


.SUBCKT AOI321xp33_ASAP7_75t_R A1 A2 A3 B1 B2 C VDD VSS Y
MM11 Y B2 net026 VSS nmos_rvt w=54.0n l=20n nfin=2
MM0 Y C VSS VSS nmos_rvt w=54.0n l=20n nfin=2
MM5 net026 B1 VSS VSS nmos_rvt w=54.0n l=20n nfin=2
MM4 net29 A3 VSS VSS nmos_rvt w=81.0n l=20n nfin=3
MM2 Y A1 net30 VSS nmos_rvt w=81.0n l=20n nfin=3
MM3 net30 A2 net29 VSS nmos_rvt w=81.0n l=20n nfin=3
MM8 Y B2 net013 VDD pmos_rvt w=81.0n l=20n nfin=3
MM12 net013 C net23 VDD pmos_rvt w=81.0n l=20n nfin=3
MM9 Y B1 net013 VDD pmos_rvt w=81.0n l=20n nfin=3
MM10 net23 A3 VDD VDD pmos_rvt w=81.0n l=20n nfin=3
MM7 net23 A2 VDD VDD pmos_rvt w=81.0n l=20n nfin=3
MM6 net23 A1 VDD VDD pmos_rvt w=81.0n l=20n nfin=3
.ENDS


.SUBCKT AOI322xp5_ASAP7_75t_R A1 A2 A3 B1 B2 C1 C2 VDD VSS Y
MM6 net50 C2 VSS VSS nmos_rvt w=54.0n l=20n nfin=2
MM5 Y C1 net50 VSS nmos_rvt w=54.0n l=20n nfin=2
MM4 net51 B2 VSS VSS nmos_rvt w=54.0n l=20n nfin=2
MM3 Y B1 net51 VSS nmos_rvt w=54.0n l=20n nfin=2
MM2 net52 A3 VSS VSS nmos_rvt w=81.0n l=20n nfin=3
MM1 net49 A2 net52 VSS nmos_rvt w=81.0n l=20n nfin=3
MM0 Y A1 net49 VSS nmos_rvt w=81.0n l=20n nfin=3
MM13 net53 A3 net27 VDD pmos_rvt w=81.0n l=20n nfin=3
MM12 Y C2 net53 VDD pmos_rvt w=81.0n l=20n nfin=3